-----BEGIN RSA PRIVATE KEY-----
MIISJgIBAAKCBAEAqrlrXWepGrh8UvRc7k+JgrzaFxqjiF9XpMRXi8yhaVqVVOUj
eRvliPKI564YxU0NL0BCr4RAWCOLdtnFRt9yxJI5arqFtiyxuHk9jsEeeoeqjrcv
iG583Zwb/tQP/Oy+vnBD5qzrs/UgD9CllVD49XHJLQVCm6f1J/74TgXxg+D0mewX
8g2ZxfaO4mMNSf0m3w42scpH5UiSAl2fz1ekRsPSaTC4g/5hmJRMMGYXfP/wIflz
AYQBMgYkRf2DiY1Aofbh34d2V0OtpzrKoSlNhY/g2eLGVMK72/9SmW3EtXwgOChI
WIhzJMs0AK6fwGtM4YiE2JrnuIE6/75j2CXAC/z1Ei9y2ZYdPCPr3e1+x9K/WmYG
v/YuK+9mJU5v5crMVu+709LziEcxuFVCV7tVw3k/wCRvsiCMV8Kp9p3lAsY+3EZU
75aHAgw5PHY4ZbVrwW1riOKqxJ0G3r6OirFEovJ/9mkgs+nUlkslX1N3umgzch9r
EFGTxmLPp2ksNVg9oLpGKJfx/dxIr20R/rQEsquAIja1CNuMbonY7ovuv6jwYW/8
CHSIPyhJV4C99DQMMb1R5lrKOn0gyhCulz8phtHjDxJ5GUpa7pkfCjTHgxbplkWx
LVCVrTngOJe7brOzE0hmeghjZ1O3IEWarFZVNF4xNt6T58Um0qumrn0VLLh0fmgL
lStjSC4/9Ee8VZTeRN5PzqKIa9fDLxabtcAqBWiL98vgb/apzzrIM8h1TfucVaRU
mMcH5RrGQjHzg71h/niDpdk3KO1ZGcoGIwY5RB80OVNEjc5V04DDcNakFcfQSWYc
mzcGSgQDgJqZpsPP+0tWImSRLMqXp6m6OsZj6ZzYJ/bjgrXAK8zGoDVJEiY/UawF
PRWAI2MtTVedrmufh2Its7nOEjcF6KOe7GAcpmF6hMk1Eu/GpVgU2+ieujMWK50h
O7UpQeRoGeEvAT7Ge2JW/pE/BfxXD5uSnyTrA/XpIuEePjm2W9+yxYEbFOP3w2lv
5ncVwPGHqsF4LRCWkUWpLIc8nI5JE31vdZEM9IFRlreqYMVuPMG+mgYap8lKPffO
056Hbta+MT3DoAjn47U80sYqO8fBM9pDb1M0sE0e+EFCjW73oO9kAaUfZ3N0te7T
e/14xDnLwWotipntQ/Gtq43yDxGqVWuBeoHLW9wXiP74r3/LXLOPyzwDzar+To/U
LlokbSakeWHivyEpkiZIp4P+6zyluhqNQxnYpg5gazg87stD3RYApgXqlD0A8d0M
OAX/1hu4ET5RZ9CPUrCJKuOEgbOZcQ6pI7Zce4/tWIXUVtv42AD7bvoXB9d8B/IM
xmHq9wMm/dZ8jBrQrvCq4lmMthx1c7x8Di5eLwIBIwKCBAA/aXEFb6U1z36ieAVC
kpIpPtSpfuxImHECr1O3lSYCj1wJlu/rJ55mEPEFmG+ZvYiN5KsN/ewDeuqofMWd
+zlBsqecq64B1hYf8oSUG9ge4e7kjS7piB/ABsiR2bzLqGQa2T3KtUGanOAF38h5
SfYSBbEfWbmnh4bxmTen85Q4TD2YQb/ATjHNL7FqB4iX0w5wGzji81yIXMiEiSy6
uicS+EbWnRFVmP+ts2zBhQFo8VkxMMRRBSUD86cSrp6SLSaijuYudCSkEdLJFdY7
3CQbqngWaixooBnj/7+YEtQI5PYGOtkK8NpPfqzqT30qNnukOgV1BlYRVJJBu76v
XnqIHCCDGPAk7p0k92Y8fMiwnrwaQycUGZwe8oUGitka1kvlxsIbej0ynhnIH6rt
Yta2UZtV/ueoj78ZSE3CACHcdYUP/N24E1a3niPjQdpu650NVIcG9RrbUERhXLiZ
6hIt5Qr1H7uwig0h4WWnEF+rowvLTX+Jt+ZuQfVbcDT93vJRpEXx0gls62t0W7Y6
CFmEMRJV2c42fW6sttuLzZMxPr+vKZggZcw0tzEvITCciFxM/S0Mat1mLnnkpxxG
zlFAtFumgzRLON/yON+ktISeZ5iW5q+F3BpWSLJeKbqldfIOefotU5KiuLG7h5E4
slopZNBzdz5AJKgFGy9IH9SqNUbHFakno+fHEDOLJE5DZwgWX8J8Ove5sB1vvGEP
v7gsS5HCvVNoMT6WN8zXeuUBUYkESFnR0qrgIDQQWPFxiXZ03niXLE9hps0ODMzk
EYqI3RLkj386xsf3rMSCLJKVYKh9b8sPKHoLjBwDMRJxwFRGqdxNjx1KTYCS/ac8
MTIdZsOQI9faFuJPOffDHFk98qY71U4ax4w9GEG0XSSktIdjV/VE8sB0/YCpcuGB
An23d93vaCB0aeFn/SQh73NDwyaMuWYRtxFaWuO40mFnFO+FTic6ss1VQUvrL+Jr
mfyRPdIA7Tvd/o2AUWXorATteyHazlCVSGVi+0Xc+yZDF/D8GJxDhNoB56HE5C7K
ra253hUk+cqHfqWVul1BJV7sYluSEhYjwmOY+1BsSZvDbZv4lE3Z7JevU8CRe+cP
djnbKaobBgsUWTRtBozvPzdY5Or5bXwYt5HiiehBBF5MWCuksLzahOyntm5UZHWA
cQlMexOWLjlR0yPmDxyS3vj2EhQC897LWBD57Q8tTgtCXoHM9wF7x6NyRn/aAYDI
EjIJh7kIXoMb6Wyh7ms37y3fiZ/iTjdP5SlRFqD5nKqyZ7l9xxfZMqO6FOUvLtu7
lFOvxafjSUlRWOV6IvWpZyj+BtCiEZKIMxY2eqbmkDSkR6ikjhjWCgJUyIwPQyBP
W93rAoICAQDWUvK+GJzvqurhPkrN2OL6l9bIhtYTFezgWu0cNKuPIe1ucgQxCfjp
03e4T6rVIgEwOhTd1i6fPwCipUZyz+5vKuw786mGTU4bAO/aegVc3mk0lLu8NHsk
SXh6hpR6pF2GxuWU8FM4S5Wwg7SrIDBxhSL2BzyjlnyRkRo6ljNQV2j9clvtSpMy
qU0m32C2RY50VIukJ65kNS95f8TvhtcTn/cMmTrv8Dnajpy+ojidskoi0UqX9peo
AL6inGcrV40r7VhoIo1T0gm0Dqf1u1ThPo0eGgXwnlf+dTItja/Z7877uJ5uy3jK
W+3/+9BFWnrcJkM+1OKYYhvyyuqKQUytAOnx2PSg4OfGggoBrClT6BeCsC+XD5Bu
2kkVHobA3I7XFvJnb6SCExemBllAMSEuA3GtCEVYBCMJIzn9ch5an6XN3kweSayB
xY5CnrlB7fngE4esJGtw+lsnGlDSpnI6uQwyp9qNaaeOkLXT0aSoiJIGDuQFtCDM
mrq9iBcXMhk05DodTWVl/VO7MIKbZ1L0gfvBYouJN5qiVboL+b/uVzpTwg6JxKHN
wxHsrh/Pq8gWA72lfc1RFYGCUen1MkBnqBShkeq7bOS9hMovDvReR723dJCL/HAU
HSWrDfP3+E8wH5W3BC2AYGdJ32bycb2ANzD/IQ+bw1sDnbFgeWPbMQKCAgEAy+wT
mcMQPqy1Shf9pZ/XktNAym98d+vVp0TfjeCGl1iIRlIYuyYWtQTeD8dcmhS8cV7M
rFKcTdSIXF03Hgv6ZSK/KmnzeK1UURpo8FaqQAjspWSfCmxPtLQjcu5AUAahIWvd
ZPg7wHzhagf/WmgDtqQ3rIVriwlV+rIzWu7TjKWBpM8TE4qCevv3P8c5eyXPbeXi
GKXrZ0m3UazmrfX9RshDPf5ndYSNvUMMqIxb3bdeeFZSlIB2Ij3cOFpLi9OYgnSg
V4b/4ctcJ4/HvOGd1ocqMbyp6oIb7qsP3BclQbSAfPGcmB0TlmtlUaYJFzsJ59nn
CVhHuyz2ACpt1a1IYMJA14oZPRj7zwk0eae7gtzsgkfnj5Wk8s9bhwcubexZBnZe
jj7HR/rzGEJtGyWs7pHH+US1EnNNFBLI1+dFUf2tTAxHVTRcI8mKkkFBquybHALd
7O2jzcprWrz55tuJFagdVy2ImLp+8rodXZ3UMSzDoaqyMUZ1T1aVDy3gTlPXRMTY
1TOlLkUZmQn5d8yA/vwHqqjyqfYfSLb5/y6yxg3JGn7wKstSjLTQ802dPPEWFRav
R/bPtas15tCHLi3bW6a+9ijS6OS9/LwBZZHj4dC+D2xXW5MaGHIHCcBS2BTYaPjx
8qJIadyMuU86EBFNnh8taON9w0mR0V4u/6twt18CggIAbjlJo5ehKszt0uzWA3bb
IcpudcGv7I7u2chcr2uLbi60nzNSnOCOpCOcp+51HSduU1ESC6/6uExJeDe91KVz
Tx1jjIvwyLoK6VDwYbsYs2sRiMGFHvZrNzu6TaRMXFSH3unyadqudLkoaWhOSWEC
+I2c846xeLPLCQjLqRoLwusgDVDBj/p3lmWypkb+iaAdYGX+rDGqJOgnC0kGMgrV
AsdL2pfybMSwCgAzWrnT+VRgpDEfDFLu6K/tAyvdSX17zXK/wIbMVv5OIhYqfmBX
ichl1PdwxOO4ObiddoNhwIn1a4OErgI+Hu1zFe836Sc33u8bROKDKcwOX5uOkD7W
+eM2fGDy1mUJfAhc6urTbPsExt5EXFEltVpReJNbPp1QxmOSm5iAfWjnlzZ3CxHz
zoVtqXH3xt2OXHiEOTNgEVlrNqzWsH2pLMwABQEsE0cwDNbYD2Mv8PXIeoKP905J
YAdlW+FL07Kt8YxAQQy7FNiFnLczcKXHua6pLkX9PyEURxZJxe1KFzHTSlN2Xozo
1YStXCQNP0Eq9GaaMgtqBYvyHHJt4HPA7XpDu4y/5yUlEqLWj5/IrVuEbuhMb3jt
7CqORHbtv3nUuTz6RBZRyhZET7hKVp8VEaiXB4OEyKuWcIVFrpRvLBRSYIGFZr4m
8Xt4SLHqxSKj1flT6HjxhqsCggIANG/nyHP83OqVBGyRrj8LjCexkyP7b0tFkWl7
UF5OfrBdjmzhyblWS84NN0HknKY/FdaMZtNqBWKJdtYkHatPBBA/yRPuJlh0xGXg
eFDMsWFhbFuz3hvZ+0RDoTXzR8cwv3OCEqY7QCActN18LTCwf2wOUO8bp2jM91Jk
+iAnxRSdrglcrUDfuTl6F7bi5Sb60x3bDacCBJ3tT4Q7UU3iCuMJ+f+W8lVJBMgZ
Mqe/2e1SznyY5FuMF27+HR6IdGmcPs2IUQV0/4wQYfHFpZkZ9VX06DfT69hQU1CP
DLV+m931J3FUJx1rb9J5I5+5Mdv7O55unADB/O5N4skU7c15AvAfTV4GfWzTCVoj
b71qu0AfjzcPqJQxusebMVmeOYXrAaloxX3beOjCKs9AoJSoz6HUVgpacnVrl3KL
arfP/yP5XLKzQcuiqh3hzdZEFgJTxV/SqqOB5HXhF1UqUU5lFDKLM6yfd7rtcZ2S
hcl/tN+gBQAB72njpq/dL8n32aCHz9rYq9oUiD2nfx/Sb0M3HP76qDoSg3nNh7oF
xUaFveZJp7o9wdyC8PtLrEcobsGml7VgRbR+jczwmnAiwrtVqdprnmJE3M0a6Teo
lnX4xQnKeP6aHtyu8FfV7JCKVNIpBQzQgDhbw3M6IQW+eSkFVIusl1Bwy9EW3hDn
g5J8EeUCggIBAIcnIcGC1qcl5x3TALtByVUgG4bgDYTPdtH/Ln0SF37HdNGU5nAY
N7Kb18lQT3w40JLEHlTrq9StXFRE4rry53uN/W4Mq4wN00UOOq7w63my7L5IZjPr
Brr3fxYJ++s9TEXsvJCiFZ73npppy8vkMSG9Lu3G6JtNG2m0BW9Ls7DSzPhtV4hA
6MgcdhBBbBFSgc7YGHwb1GxS/Kff/5P8aH9+h3ZfswXaPadCuNk/GYgv12OEzUKx
G+Lm0DE8Mi3IQDsIo4My4LNdEqqSjC45987Oj4OTWVkuc3i77MZIyge8XSaIgJsI
YFbj0H6o0SSx1D+RbWZmyHQhDwd+niT0oN/4MiCkKlbqSDz5JKhMPqXfzQQdPcnl
O1QWwzBg/kqIBFL478VWeBiSxuviqszGmvWal4DkS4UJDG4EzHMTGhJE8r6R58Aj
8m7q4mJfgtGN2OjkxwB8hBE56F+ZyGKzu/MPSdunQZlXjlwsDZeLtWVcYzs7mJ8p
OSt+ijQD/+3SM6l6b4xyZd+Fkyr7+FQTpsuUFsbJbT/ucEtYRAQkd8cs/mu1YFv0
WttA7f0TkVHmprr+Nwu4ouIRwV5rCWjw3gps2eeXaTAMwKp4BgoBU0kuTbJZ+r/3
MMvx2+Cdl2myrmkC2w77dsz5fgUKjtDSx2pQdaahh+nAnurjdwwVOlBy
-----END RSA PRIVATE KEY-----
