ssh-rsa AAAAB3NzaC1yc2EAAAABIwAABAEAqrlrXWepGrh8UvRc7k+JgrzaFxqjiF9XpMRXi8yhaVqVVOUjeRvliPKI564YxU0NL0BCr4RAWCOLdtnFRt9yxJI5arqFtiyxuHk9jsEeeoeqjrcviG583Zwb/tQP/Oy+vnBD5qzrs/UgD9CllVD49XHJLQVCm6f1J/74TgXxg+D0mewX8g2ZxfaO4mMNSf0m3w42scpH5UiSAl2fz1ekRsPSaTC4g/5hmJRMMGYXfP/wIflzAYQBMgYkRf2DiY1Aofbh34d2V0OtpzrKoSlNhY/g2eLGVMK72/9SmW3EtXwgOChIWIhzJMs0AK6fwGtM4YiE2JrnuIE6/75j2CXAC/z1Ei9y2ZYdPCPr3e1+x9K/WmYGv/YuK+9mJU5v5crMVu+709LziEcxuFVCV7tVw3k/wCRvsiCMV8Kp9p3lAsY+3EZU75aHAgw5PHY4ZbVrwW1riOKqxJ0G3r6OirFEovJ/9mkgs+nUlkslX1N3umgzch9rEFGTxmLPp2ksNVg9oLpGKJfx/dxIr20R/rQEsquAIja1CNuMbonY7ovuv6jwYW/8CHSIPyhJV4C99DQMMb1R5lrKOn0gyhCulz8phtHjDxJ5GUpa7pkfCjTHgxbplkWxLVCVrTngOJe7brOzE0hmeghjZ1O3IEWarFZVNF4xNt6T58Um0qumrn0VLLh0fmgLlStjSC4/9Ee8VZTeRN5PzqKIa9fDLxabtcAqBWiL98vgb/apzzrIM8h1TfucVaRUmMcH5RrGQjHzg71h/niDpdk3KO1ZGcoGIwY5RB80OVNEjc5V04DDcNakFcfQSWYcmzcGSgQDgJqZpsPP+0tWImSRLMqXp6m6OsZj6ZzYJ/bjgrXAK8zGoDVJEiY/UawFPRWAI2MtTVedrmufh2Its7nOEjcF6KOe7GAcpmF6hMk1Eu/GpVgU2+ieujMWK50hO7UpQeRoGeEvAT7Ge2JW/pE/BfxXD5uSnyTrA/XpIuEePjm2W9+yxYEbFOP3w2lv5ncVwPGHqsF4LRCWkUWpLIc8nI5JE31vdZEM9IFRlreqYMVuPMG+mgYap8lKPffO056Hbta+MT3DoAjn47U80sYqO8fBM9pDb1M0sE0e+EFCjW73oO9kAaUfZ3N0te7Te/14xDnLwWotipntQ/Gtq43yDxGqVWuBeoHLW9wXiP74r3/LXLOPyzwDzar+To/ULlokbSakeWHivyEpkiZIp4P+6zyluhqNQxnYpg5gazg87stD3RYApgXqlD0A8d0MOAX/1hu4ET5RZ9CPUrCJKuOEgbOZcQ6pI7Zce4/tWIXUVtv42AD7bvoXB9d8B/IMxmHq9wMm/dZ8jBrQrvCq4lmMthx1c7x8Di5eLw== root@targetcluster
