-----BEGIN RSA PRIVATE KEY-----
MIISJwIBAAKCBAEAsz2FqauKC5UziWJ3o3Tbygz1f6V4H1P3U4XcsZv7yQnvJlD9
Wisph/M7MhsaLKkGaCSN7Hhu3wYK7BMyjhyr7jRVvsLNZVQIG5dW8YpTUEY5eCEw
DN7wgHuc4Bq4XqKLeUH0sIIPjgZwxed9cdV6W7UkZGO/z518UXSjJncaBlaNEKw7
SvKR5RviFn5snClvWOEvSvLh4jb0SS57J7yjX1HfH4SU1Z3HNZaGwPnTdRlu8+3+
BjY0HuqLgVSObvzq/fuVbi8a6P0RaoCDJd8s2v9603+g1DoQfk4VDBPHnftvAvqR
eTLo2byL8r/Ll7RLuYjU1po0zYemyWNSdR8rADrO7vZONVy7QIow+oDrZzknIGwG
VZcjVpm6Fc3uqVtwnxuZNcBd8DAOVEo2LXW1kLsl6Wpe4Fd/70niGTj1DjX9XBcx
nC0+XRuSARa/6P0pLYoR/AdjB6WM/FMHEUmgeInsQOOuz8Bp5u87rlwf5kC5fSfK
jbkdF2TeV/I9iRb78+e/PcQbuliFTc3u+57wlZBODj9qYgTXlKSlmrlDuntfnl6w
ifZUnlyuSWAN+v8U2WuTofJc3LXf7STaTfJ+DyeeyXMfLsz7P08zdEm5rK6mxulZ
Gpw45eiyMiFz9liEtnTAMG6Fmkd6bY097yBZUnxmpk9De0cU6dRMncChfk9TykmU
ChAJ9cqMUORIUSXx3y8ZvKPLPUm0+WG/hbtzS8yxQyRLoaUmp+Dg1QwnOcOQ0Qpn
GP0qhqCGt7sE+YDBEt7qGG6YPO1ur80rOWCjFhJb4M+qk5iLSS3eDsbvYxjStBzf
Uo1kfJImXrarclXMs2t5bvtrLqYHcn/0dGWRywNONezT1PfdxZCNuX5x2aG478D0
pGrndavmRAkDYL9UMUoU3GTN1xnn51Y7PQBi9/Q4JfoyxcJaNSilzw0YQPUMicp5
R5KoEP7DXAFHxLYe54A2OXKEySQjFt+Q5ClxdJH0BB2YVtJ+h6wQJ8FzH6KlOcWe
fvFkEEivnXzXFIiVU3yi9GhD1oRJK0vayqbJCfy2019XDQNdvi3StO6GJfvbsh25
xZOkWL+NcPb4WhrqQeAIGhXb/M3/ZCPUG8P0a7hgNoHtqxKfmhfbP6SxbeuHsIGX
NfbFIrGHgqkCYfuUJ3VSy18mObO8rKv/2v39PblPPCtnmZ8oSdfRxzGaMBsNJoXY
yTxNMaVGlzkzbCWXF+isPDbcxB0jgerBTZwIrzQAnax3cNd75FwR6uVFNXvHU49C
VaQOF2f4gqS1zvjFPg2z+ggtU0IjpzhwZ1iBWRehez6jpjcAellUJSD2svd1gj53
3CbGGHB2TRVTZgi/XUmOFm7tBd2KMr/XG0LiOwIBIwKCBAAPXQt08XI7gdE3qVq2
PTdpFw26e+W5itqvYz7NZSQ1zabIxR0Huo6H/ufRGEQSdONKwU3+U3c3sA+Qk+5j
89Q4/Svrx43yvg9S0nUqpXTa/rR4Atg7nhSdTGyIPM35e6WODPe3W5ru6pvztMGc
Cvvb+ZVnsMdMT1PMd7Y2fzy+tvYmACJW4Zd6CbRLEiaRCt2oiFSCxFyBGqc5eQM9
65j5iqy5jwVxZUuW4QQ8bS9hzvrhtVBJrN/lZI+dXwTk8Rt02wzO7hg/2y1g5nGk
KRJ5K9dT9P8oIjvtkaoIWXeCkeTxoHLegLTfdo+nF8D+X+k7yeZbiY9/VMUnNGYn
S9B8XM/omMTgAKJV/Tdl7csI2QNajOqZnz2LFH2qGPczFndeGE71+ou1gHZBvTfY
AsZrfcFrx0n1+N8Ugqz62P8P2L3x81wGEoGwNZAr+qK8MvTmpW9BfPncFYEc8Sx9
0xxiGnNWBOMZHx8FKnLUbkvgiTR4cR/9hOU8hP0deynYjPEGRxBkYUQ0iz6gRNn4
T3O1DF52P/Ms+RnK6YqJmtnraakcNACA2pmJ6q/aZ1GnzLik6/a2HBaWkz8UU52u
6OY70DIuhjXfcKfSOf0YmJri6mYRDK/dtZ56G0J5U1MVHYe33h8aGBoUiciqTe9d
o6/if7EG8Nnl/sdHPhUyF9NT+AcEtgvT/HnlDB0tlB8LFP7KlwptFnLrjwoaJmOO
z9xmP3diN256+aPr/I3UydjgVFyTqMEcboum5HcOAQkNODlTXStzxTMtGAHJqNmi
Dx/4qmGRDzksdlEQq9BemKcRRG9mFQvsk+5IMJ+Qbhq0K6ZmzDkpMcflp4zJUVnf
nSf3mrLy7iU6v+4w/neTg/7ALHPDGKk7nojPQBY3zZkbhzSS5dPAMkp030m1YKuB
HscAjVQQ8H81bET4AuKcAnTKYelrmxgdHc4U5i9YbTugAa+zQuPyV22RqB1aokDi
zvRf2clLI+MT3DLwQm/YSeJbOVOPvpYyAmcDbNYLZBLnEimgqEF1WigiKYslOnOw
1ssCyK8kP9MSos3ZUi+mTcyujLGoFd2vJhN9KFq8w6Y/13tAJoMTmtLl9IzE/dfx
cGfk7+7BvpTYXuiqtbgKHnVNC2YT78VtpxVJj/HbnXlHpAKQtLH/rsVser5rYUGv
zfTAh5VOMuRMp0J8jVwYrSE9DkZealypF1YxhPVdmIKHYJEuaEWTAkMPaidJT+ui
eYUAQVKwRNlrSU/mYe4+7ahdzNSuhDV/UFh//xmmi6BRIu+vlOBX3tF2HgKKiiQr
ceZr9ejCT/hVtCQ/lvvIQXteG7uFdVszb5EEFDcyoFarZMbdP7Q7gkrWPaTwxaQb
BRNrAoICAQDcGBvLEmxFyjPoVVflt7OJPeJ3S1Vd+87I7t9gfLLDwILcPBKzgJtk
fbw8qd53zlKCCgpGe07r2TTPyEgJfgb5QZbw2AuXy/mwbMh1slaZRju1w12AAQtR
IJP3p4dborCYRw/9/983PKRHomg5hr7yfeQWQ/tOmvwiZFVEhXDeouQrDvTf99yQ
lcwKMQJmg0haE/enNZ2c24/RzOazmPffMHGIMRz2L+O+4zC50RqA9Gt+WvbHZxDr
je3bpR8g/7VNYZYCzNYGmOcnWB8t+hSLn0iZDBo/hRA92/tqRkDGgIjxSXzkCWsV
MUV4aXcoO5hxdE0Iy+XnPfwadZKM+4M1o/Bi7rJUIgM1C00MRTUpjC5PmDmFYymb
+PeARNx+SdGktmyZWR0vF7JVHsQxXS9kMdc7+U/x4iyld8BSa3God0uF/gnmbnPP
mrDcDcocFtcpu5bFaX/1l2t1MstVaPgpIqnsCqFO/cwb7CJEzJgBzX9u/ikJvT8F
uC1AwOva9fd/PpqfbRVmd/wEg62G4594fhX7iKAdyKChUO0Ue6BQoijxpa0qrogQ
Ir2uPLO87HY4QIQjhgXJNbSx49tQntYXQRT+JuYfN1pnT1J4SSDtuMGvAI6cgeHw
ywUwgtkeAcNK6/v5Cucwhh5oEEzqLGSdz4UvtGwEI9bDwJUekSDIMQKCAgEA0Hs3
PvkiNhCz+j0hoxgoIWW/03id2y/2INltKtw6TuJlZDfgOdupSb5M2CNQIoeY1rb5
/lH54Wes9KFm5zaUgFoI/k8RALgw/rz9dSRZlNAS3oEV5OEo3btwEhef9qGfJsYX
VjVFpqBhQ9H0j7WZmjDjcvUQqxxceowgQhN14N9nphTIQYUGx57WZc94GemoGEz+
7GHpDn2Fu+wZADFIuk8J5j5Scv5ed8ATBd7UJafCj7ANn0TCSgRudmMmpLLJcUDN
snxg59maHlGSYiqN5seAjyIG8aC/5Bl/MZ0k3UBxgPiosGWzwbi01DhBpLvCujhz
vWuaIFUBfqMFbZExegfhRFdExiXxvML/iMuntF1TwT7n3dBuYDMiJoaGXpJrc6gH
W3EPkeI2aw1IM2lu6COc0ua3ovUm75zR/6+IOoV9o2Qd6WBLiuJ0RrvMkimPYbb9
fSKELIZhYfhbJgqJ98Hkn28cLUpPndvFvLYDKVS2vQMF9l4WGuSOs+Zh5hx9A5pn
qvzBTnfvaM+YZF0fgNG82lXRsJz7YoRZRRUcqF9mSkTcDt6ix5cn3XqyMVgFMx8E
rqz05wxocLJsbCg1wacv0dH6gmSJnrJE/M4GvgohAZ+1tecfaMlyqiyhOWdF9Cvp
Vs5/Tw1mNO4kdhS3EXiH0lZoKnPiQiPTk07m4isCggIBANXORuKG7NYU4fejXLNE
vQj6SbW25Ta6GVV6VVZqgcV5LqoOeJEd2MgFHUI+nZj0UCaNaRFElc8qxZalTUsM
tlE4Zr4Ts32EUaQR503DL42UrwhXYiSTTNJ3aysXxVGz/AGkHinxPzz5FJ1b8Dfh
+1H2ow5QqvvnA48fo0ngtsmljTEkeNmRsbEGi7Ig+wR/iBz9dDwIMrWiFq6MiFax
2tjP+UJ42k49JmGpf8pzW5M2lE7cBavDNQIU2G74LN46Oxf4ZdbVnLXznriBfV/c
/gP50X67TLK7xqJ97OrlKPtYSoP+Ps7kk+izhVBmc8Cu69vtUiXNYv3kcT5GU9lp
WuOmkb8xBQFFnLcvjKzVhBm7YDAQN+CpeOCotepRhbyCOV4tjhFPQOvrIkQPQj6V
CXdGXA5f50K+dIN7pOJZvt4qvmToJt/ZAsmsNscjVp7xndDE25szSRp11hoUFfsy
xS9GPqrIf3FOUT+yL+sP5B8CJAVr7VnrCgWOV9iA5R3Y/w3lCzvJDXl73t/QX20X
ojqJHKs0Q8UpS5VkjojtH2RFwV/Fg6XOHcaIJfm3T4RTa4caGfafc1W/JI+M461n
GR3nc3qMMAERMz/JZg5y7MmsKd0zvbybbcVXgWJTOVBZe+JhlbAZOFsF8abrQ2cj
z3S69mjbJxn27eK7FIQX8/WrAoICABHerPbE5azc3DoFPWXAPfQ7697tFNhF8IZ5
CVtx9l6Ibxc3/UbJr2y4ij5pbUTJy0Wap7a2kcLdADI5uFz2DLqLX9tImw6ws74Q
MvtphAVw66yr+o/2CtEtUr+44dNPro5LflfYrjLai/5/teBupsQS0arEjGZwJS8T
UzjdGLuA3P+bYZ83SblWwet4Lt2mUDyY4qaMDKl4eS1dYTqH4amRvwUbSOVJAMhv
jJoaafSZWdHNQv8F5MSECXfcnOmLqt3SWsYn6wyO/pTia6IDpcNS7cMgLHscaDgf
cU1lPayQfsHpbYt2bn5RqRmBKjKxAg/2Nc5oTwoV6i9tDxgFIX99BK4WG9Z4R+ub
r4DA/78Ar2hV2VwnzvJNhpWWgIvDaEu98gCGCKYatDUPxFwtm8rBOVPn49rEjk8N
cRXqeWQaEhVRuWvGbOAEyCNR7PaV2RcBDmnPwi+zvzRIfNdf/TJ+VWzAYYA5kcuz
wH3jtyDMvzTFvq63m36l4FiQFwUYYnym1a+SAfDIc5tE/m8Aqu3I1axQf7ANdKIL
WBvdPPh9NKdHuxc3p41zWzA9t4CShBpTHaiSe2RC5GFuYRCVu3b/s6RFMrq4KQ2a
QG1wvr/U+4PL3GAMfwj7UvikvVyxFJ/mgbb7wcTyhRp6z+zdNENTeVsr+kzIGrU2
RVXE7zf1AoICAQCWKc897Sgg++/c76mbQecQjDXcjX1vf02O25Zd+1OraO9WW+wu
xK61mtsf5sCPYCReglnHtA7u2QnDJDhgZq0Vruj8o7KcSEdY1ciJak5gTVwwW3WN
Ztpfce+dKZqMmtRveUVb8IILZFY+hNek2/q4qGlLsT465+Xdnxx5sFbzpf6WDt/J
feWM3woQa5nBrrTAYLoopiouBSUq8PhO2+zqvFjGZk1NHBNiYaKCrOEKwj1w54qX
zkd+N+F6BkLGRT4u1SmxsCkqRUKpa1j3xUSfHYcijm/abtPeVGNZDvsbmUSr9vmx
dX97GPp6wqUfGIpkqzt6XdfHdhxaFPecdhwaAQmQgiqahbHo1ZkMXinl13h4vA6o
6O1+UyzYCCv5SZMBol8yCTfBrBv1J9gNMcv/UVGngOuYn++2mrcoXuG3ntS2uGpY
5coEFapn7YhuVUTacS1h+GnPLiqo7pSKqF2cJxWINEUjGwC3D3NfHiAOObFp22VE
N0ShqDWpU9284UceNEPlLu3znLZGYFV3l8cktBGHd5bHe6JFhTQYWJEhx9sN0Ym7
Dh7LWgx+cbeMz+5Xl+qRkZIwREQ+H4SlrzM4J+v6BdFyWIyh7nusun6B9Wy+KdOS
nVm9i/reBpGAGDfRpX7/8QLnnpIrltHY7Tc7QZAtJ+XC8AWvTTV9hPI7jg==
-----END RSA PRIVATE KEY-----
